8
Lattice="5.9093 0.0 0.0 -2.95465 5.117604 0.0 0.0 0.0 14.4747" pbc="T T T"
Si    0.00000000    0.00000000    1.80900000
Si    0.00000000    0.00000000    0.00000000
Si    2.95500000    1.70600000    6.63400000
Si    2.95500000    1.70600000    3.01600000
Si    0.00000000    3.41200000    11.45900000
Si    0.00000000    3.41200000    7.84000000
Si    0.00000000    0.00000000    7.23700000
Si    2.95500000    1.70600000    12.06200000
8
Lattice="5.9093 0.0 0.0 -2.95465 5.117604 0.0 0.0 0.0 14.4747" pbc="T T T"
Si    0.00000000    0.00000000    1.80900000
Si    1.47700000    4.26500000    12.06200000
Si    2.95500000    1.70600000    6.63400000
Si    2.95500000    1.70600000    3.01600000
Si    0.00000000    3.41200000    9.65000000
Si    0.00000000    3.41200000    7.84000000
Si    0.00000000    0.00000000    7.23700000
Si    2.95500000    1.70600000    12.06200000
8
Lattice="5.9093 0.0 0.0 -2.95465 5.117604 0.0 0.0 0.0 14.4747" pbc="T T T"
Si    0.00000000    0.00000000    1.80900000
Si    1.47700000    4.26500000    12.06200000
Si    2.95500000    1.70600000    6.63400000
Si    2.95500000    1.70600000    3.01600000
Si    -1.47700000    4.26500000    12.06200000
Si    0.00000000    3.41200000    9.65000000
Si    0.00000000    0.00000000    7.23700000
Si    2.95500000    1.70600000    12.06200000
8
Lattice="5.9093 0.0 0.0 -2.95465 5.117604 0.0 0.0 0.0 14.4747" pbc="T T T"
Si    0.00000000    0.00000000    1.80900000
Si    0.00000000    0.00000000    12.66500000
Si    2.95500000    1.70600000    6.63400000
Si    2.95500000    1.70600000    3.01600000
Si    0.00000000    3.41200000    11.45900000
Si    0.00000000    3.41200000    7.84000000
Si    0.00000000    0.00000000    7.23700000
Si    2.95500000    1.70600000    12.06200000
8
Lattice="5.9093 0.0 0.0 -2.95465 5.117604 0.0 0.0 0.0 14.4747" pbc="T T T"
Si    0.00000000    0.00000000    1.80900000
Si    0.00000000    0.00000000    12.66500000
Si    2.95500000    1.70600000    6.63400000
Si    2.95500000    1.70600000    3.01600000
Si    0.00000000    3.41200000    9.65000000
Si    0.00000000    3.41200000    7.84000000
Si    0.00000000    0.00000000    7.23700000
Si    2.95500000    0.00000000    0.00000000
8
Lattice="5.9093 0.0 0.0 -2.95465 5.117604 0.0 0.0 0.0 14.4747" pbc="T T T"
Si    0.00000000    0.00000000    1.80900000
Si    0.00000000    0.00000000    12.66500000
Si    2.95500000    1.70600000    6.63400000
Si    2.95500000    1.70600000    3.01600000
Si    -1.47700000    4.26500000    12.06200000
Si    0.00000000    3.41200000    7.84000000
Si    0.00000000    0.00000000    7.23700000
Si    2.95500000    0.00000000    0.00000000
8
Lattice="5.9093 0.0 0.0 -2.95465 5.117604 0.0 0.0 0.0 14.4747" pbc="T T T"
Si    0.00000000    0.00000000    1.80900000
Si    0.00000000    0.00000000    12.66500000
Si    2.95500000    1.70600000    6.63400000
Si    2.95500000    1.70600000    3.01600000
Si    0.00000000    1.70600000    12.06200000
Si    0.00000000    3.41200000    7.84000000
Si    0.00000000    0.00000000    7.23700000
Si    2.95500000    0.00000000    0.00000000
8
Lattice="5.9093 0.0 0.0 -2.95465 5.117604 0.0 0.0 0.0 14.4747" pbc="T T T"
Si    0.00000000    0.00000000    0.00000000
Si    0.00000000    0.00000000    12.66500000
Si    2.95500000    1.70600000    6.63400000
Si    2.95500000    1.70600000    3.01600000
Si    0.00000000    3.41200000    11.45900000
Si    0.00000000    3.41200000    7.84000000
Si    0.00000000    0.00000000    7.23700000
Si    2.95500000    0.00000000    0.00000000
8
Lattice="5.9093 0.0 0.0 -2.95465 5.117604 0.0 0.0 0.0 14.4747" pbc="T T T"
Si    4.43200000    0.85300000    2.41200000
Si    0.00000000    0.00000000    12.66500000
Si    2.95500000    1.70600000    6.63400000
Si    2.95500000    3.41200000    2.41200000
Si    0.00000000    3.41200000    11.45900000
Si    0.00000000    3.41200000    7.84000000
Si    0.00000000    0.00000000    7.23700000
Si    2.95500000    0.00000000    0.00000000
8
Lattice="5.9093 0.0 0.0 -2.95465 5.117604 0.0 0.0 0.0 14.4747" pbc="T T T"
Si    2.95500000    3.41200000    2.41200000
Si    0.00000000    0.00000000    12.66500000
Si    2.95500000    1.70600000    6.63400000
Si    2.95500000    1.70600000    3.01600000
Si    0.00000000    3.41200000    11.45900000
Si    0.00000000    3.41200000    7.84000000
Si    0.00000000    0.00000000    7.23700000
Si    2.95500000    0.00000000    0.00000000
8
Lattice="5.9093 0.0 0.0 -2.95465 5.117604 0.0 0.0 0.0 14.4747" pbc="T T T"
Si    1.47700000    0.85300000    2.41200000
Si    0.00000000    0.00000000    12.66500000
Si    2.95500000    1.70600000    6.63400000
Si    2.95500000    3.41200000    2.41200000
Si    0.00000000    3.41200000    11.45900000
Si    0.00000000    3.41200000    7.84000000
Si    0.00000000    0.00000000    7.23700000
Si    2.95500000    0.00000000    0.00000000
8
Lattice="5.9093 0.0 0.0 -2.95465 5.117604 0.0 0.0 0.0 14.4747" pbc="T T T"
Si    0.00000000    0.00000000    1.80900000
Si    0.00000000    0.00000000    0.00000000
Si    2.95500000    1.70600000    6.63400000
Si    2.95500000    1.70600000    3.01600000
Si    0.00000000    3.41200000    11.45900000
Si    0.00000000    3.41200000    7.84000000
Si    0.00000000    0.00000000    7.23700000
Si    2.95500000    0.00000000    0.00000000
8
Lattice="5.9093 0.0 0.0 -2.95465 5.117604 0.0 0.0 0.0 14.4747" pbc="T T T"
Si    0.00000000    0.00000000    1.80900000
Si    0.00000000    1.70600000    12.06200000
Si    2.95500000    1.70600000    6.63400000
Si    2.95500000    1.70600000    3.01600000
Si    0.00000000    3.41200000    11.45900000
Si    0.00000000    3.41200000    7.84000000
Si    0.00000000    0.00000000    7.23700000
Si    2.95500000    0.00000000    0.00000000
8
Lattice="5.9093 0.0 0.0 -2.95465 5.117604 0.0 0.0 0.0 14.4747" pbc="T T T"
Si    0.00000000    0.00000000    1.80900000
Si    -1.47700000    4.26500000    12.06200000
Si    2.95500000    1.70600000    6.63400000
Si    2.95500000    1.70600000    3.01600000
Si    0.00000000    1.70600000    12.06200000
Si    0.00000000    3.41200000    7.84000000
Si    0.00000000    0.00000000    7.23700000
Si    2.95500000    0.00000000    0.00000000
8
Lattice="5.9093 0.0 0.0 -2.95465 5.117604 0.0 0.0 0.0 14.4747" pbc="T T T"
Si    0.00000000    0.00000000    1.80900000
Si    1.47700000    4.26500000    12.06200000
Si    2.95500000    1.70600000    6.63400000
Si    2.95500000    1.70600000    3.01600000
Si    0.00000000    1.70600000    12.06200000
Si    0.00000000    3.41200000    7.84000000
Si    0.00000000    0.00000000    7.23700000
Si    2.95500000    0.00000000    0.00000000
8
Lattice="5.9093 0.0 0.0 -2.95465 5.117604 0.0 0.0 0.0 14.4747" pbc="T T T"
Si    0.00000000    0.00000000    1.80900000
Si    0.00000000    0.00000000    12.66500000
Si    2.95500000    1.70600000    4.82500000
Si    2.95500000    1.70600000    3.01600000
Si    0.00000000    3.41200000    11.45900000
Si    0.00000000    3.41200000    7.84000000
Si    0.00000000    0.00000000    7.23700000
Si    2.95500000    0.00000000    0.00000000
8
Lattice="5.9093 0.0 0.0 -2.95465 5.117604 0.0 0.0 0.0 14.4747" pbc="T T T"
Si    0.00000000    0.00000000    1.80900000
Si    0.00000000    0.00000000    12.66500000
Si    -1.47700000    2.55900000    7.23700000
Si    2.95500000    1.70600000    3.01600000
Si    0.00000000    3.41200000    11.45900000
Si    0.00000000    3.41200000    7.84000000
Si    0.00000000    0.00000000    7.23700000
Si    2.95500000    0.00000000    0.00000000
8
Lattice="5.9093 0.0 0.0 -2.95465 5.117604 0.0 0.0 0.0 14.4747" pbc="T T T"
Si    0.00000000    0.00000000    1.80900000
Si    0.00000000    0.00000000    12.66500000
Si    1.47700000    2.55900000    7.23700000
Si    2.95500000    1.70600000    3.01600000
Si    0.00000000    3.41200000    11.45900000
Si    0.00000000    3.41200000    7.84000000
Si    0.00000000    0.00000000    7.23700000
Si    2.95500000    0.00000000    0.00000000
8
Lattice="5.9093 0.0 0.0 -2.95465 5.117604 0.0 0.0 0.0 14.4747" pbc="T T T"
Si    0.00000000    0.00000000    1.80900000
Si    0.00000000    0.00000000    12.66500000
Si    2.95500000    0.00000000    7.23700000
Si    2.95500000    1.70600000    3.01600000
Si    0.00000000    3.41200000    11.45900000
Si    0.00000000    3.41200000    7.84000000
Si    0.00000000    0.00000000    7.23700000
Si    2.95500000    0.00000000    0.00000000
8
Lattice="5.9093 0.0 0.0 -2.95465 5.117604 0.0 0.0 0.0 14.4747" pbc="T T T"
Si    0.00000000    0.00000000    1.80900000
Si    0.00000000    0.00000000    12.66500000
Si    2.95500000    1.70600000    6.63400000
Si    2.95500000    1.70600000    4.82500000
Si    0.00000000    3.41200000    11.45900000
Si    0.00000000    3.41200000    7.84000000
Si    0.00000000    0.00000000    7.23700000
Si    2.95500000    0.00000000    0.00000000
8
Lattice="5.9093 0.0 0.0 -2.95465 5.117604 0.0 0.0 0.0 14.4747" pbc="T T T"
Si    0.00000000    0.00000000    1.80900000
Si    0.00000000    0.00000000    12.66500000
Si    2.95500000    1.70600000    6.63400000
Si    4.43200000    0.85300000    2.41200000
Si    0.00000000    3.41200000    11.45900000
Si    0.00000000    3.41200000    7.84000000
Si    0.00000000    0.00000000    7.23700000
Si    2.95500000    0.00000000    0.00000000
8
Lattice="5.9093 0.0 0.0 -2.95465 5.117604 0.0 0.0 0.0 14.4747" pbc="T T T"
Si    0.00000000    0.00000000    1.80900000
Si    0.00000000    0.00000000    12.66500000
Si    2.95500000    1.70600000    6.63400000
Si    2.95500000    3.41200000    2.41200000
Si    0.00000000    3.41200000    11.45900000
Si    0.00000000    3.41200000    7.84000000
Si    0.00000000    0.00000000    7.23700000
Si    2.95500000    0.00000000    0.00000000
8
Lattice="5.9093 0.0 0.0 -2.95465 5.117604 0.0 0.0 0.0 14.4747" pbc="T T T"
Si    0.00000000    0.00000000    1.80900000
Si    0.00000000    0.00000000    12.66500000
Si    2.95500000    1.70600000    6.63400000
Si    1.47700000    0.85300000    2.41200000
Si    0.00000000    3.41200000    11.45900000
Si    0.00000000    3.41200000    7.84000000
Si    0.00000000    0.00000000    7.23700000
Si    2.95500000    0.00000000    0.00000000
8
Lattice="5.9093 0.0 0.0 -2.95465 5.117604 0.0 0.0 0.0 14.4747" pbc="T T T"
Si    0.00000000    0.00000000    1.80900000
Si    0.00000000    0.00000000    12.66500000
Si    2.95500000    1.70600000    6.63400000
Si    2.95500000    1.70600000    3.01600000
Si    1.47700000    4.26500000    12.06200000
Si    0.00000000    3.41200000    7.84000000
Si    0.00000000    0.00000000    7.23700000
Si    2.95500000    0.00000000    0.00000000
8
Lattice="5.9093 0.0 0.0 -2.95465 5.117604 0.0 0.0 0.0 14.4747" pbc="T T T"
Si    0.00000000    0.00000000    1.80900000
Si    0.00000000    0.00000000    12.66500000
Si    2.95500000    1.70600000    6.63400000
Si    2.95500000    1.70600000    3.01600000
Si    0.00000000    3.41200000    11.45900000
Si    0.00000000    3.41200000    9.65000000
Si    0.00000000    0.00000000    7.23700000
Si    2.95500000    0.00000000    0.00000000
8
Lattice="5.9093 0.0 0.0 -2.95465 5.117604 0.0 0.0 0.0 14.4747" pbc="T T T"
Si    0.00000000    0.00000000    1.80900000
Si    0.00000000    0.00000000    12.66500000
Si    2.95500000    1.70600000    6.63400000
Si    2.95500000    1.70600000    3.01600000
Si    0.00000000    3.41200000    11.45900000
Si    2.95500000    0.00000000    7.23700000
Si    0.00000000    0.00000000    7.23700000
Si    2.95500000    0.00000000    0.00000000
8
Lattice="5.9093 0.0 0.0 -2.95465 5.117604 0.0 0.0 0.0 14.4747" pbc="T T T"
Si    0.00000000    0.00000000    1.80900000
Si    0.00000000    0.00000000    12.66500000
Si    2.95500000    1.70600000    6.63400000
Si    2.95500000    1.70600000    3.01600000
Si    0.00000000    3.41200000    11.45900000
Si    1.47700000    2.55900000    7.23700000
Si    0.00000000    0.00000000    7.23700000
Si    2.95500000    0.00000000    0.00000000
8
Lattice="5.9093 0.0 0.0 -2.95465 5.117604 0.0 0.0 0.0 14.4747" pbc="T T T"
Si    0.00000000    0.00000000    1.80900000
Si    0.00000000    0.00000000    12.66500000
Si    2.95500000    1.70600000    6.63400000
Si    2.95500000    1.70600000    3.01600000
Si    0.00000000    3.41200000    11.45900000
Si    -1.47700000    2.55900000    7.23700000
Si    0.00000000    0.00000000    7.23700000
Si    2.95500000    0.00000000    0.00000000
8
Lattice="5.9093 0.0 0.0 -2.95465 5.117604 0.0 0.0 0.0 14.4747" pbc="T T T"
Si    0.00000000    0.00000000    1.80900000
Si    0.00000000    0.00000000    12.66500000
Si    2.95500000    1.70600000    6.63400000
Si    2.95500000    1.70600000    3.01600000
Si    0.00000000    3.41200000    11.45900000
Si    0.00000000    3.41200000    7.84000000
Si    0.00000000    0.00000000    7.23700000
Si    2.95500000    0.00000000    0.00000000
8
Lattice="5.9093 0.0 0.0 -2.95465 5.117604 0.0 0.0 0.0 14.4747" pbc="T T T"
Si    0.00000000    0.00000000    1.80900000
Si    0.00000000    0.00000000    12.66500000
Si    2.95500000    1.70600000    6.63400000
Si    2.95500000    1.70600000    3.01600000
Si    1.47700000    4.26500000    12.06200000
Si    0.00000000    3.41200000    7.84000000
Si    2.95500000    0.00000000    0.00000000
Si    0.00000000    1.70600000    4.82500000
8
Lattice="5.9093 0.0 0.0 -2.95465 5.117604 0.0 0.0 0.0 14.4747" pbc="T T T"
Si    0.00000000    0.00000000    1.80900000
Si    0.00000000    0.00000000    12.66500000
Si    2.95500000    1.70600000    6.63400000
Si    2.95500000    1.70600000    3.01600000
Si    0.00000000    3.41200000    11.45900000
Si    2.95500000    0.00000000    7.23700000
Si    2.95500000    0.00000000    0.00000000
Si    0.00000000    1.70600000    4.82500000
8
Lattice="5.9093 0.0 0.0 -2.95465 5.117604 0.0 0.0 0.0 14.4747" pbc="T T T"
Si    0.00000000    0.00000000    1.80900000
Si    0.00000000    0.00000000    12.66500000
Si    2.95500000    1.70600000    6.63400000
Si    2.95500000    1.70600000    3.01600000
Si    0.00000000    3.41200000    11.45900000
Si    0.00000000    3.41200000    7.84000000
Si    2.95500000    0.00000000    0.00000000
Si    0.00000000    1.70600000    4.82500000
8
Lattice="5.9093 0.0 0.0 -2.95465 5.117604 0.0 0.0 0.0 14.4747" pbc="T T T"
Si    0.00000000    0.00000000    1.80900000
Si    -1.47700000    4.26500000    12.06200000
Si    2.95500000    1.70600000    6.63400000
Si    2.95500000    1.70600000    3.01600000
Si    0.00000000    1.70600000    12.06200000
Si    0.00000000    3.41200000    7.84000000
Si    2.95500000    0.00000000    0.00000000
Si    1.47700000    4.26500000    4.82500000
8
Lattice="5.9093 0.0 0.0 -2.95465 5.117604 0.0 0.0 0.0 14.4747" pbc="T T T"
Si    0.00000000    0.00000000    1.80900000
Si    0.00000000    0.00000000    12.66500000
Si    2.95500000    1.70600000    6.63400000
Si    2.95500000    1.70600000    3.01600000
Si    0.00000000    1.70600000    12.06200000
Si    0.00000000    3.41200000    7.84000000
Si    2.95500000    0.00000000    0.00000000
Si    1.47700000    4.26500000    4.82500000
8
Lattice="5.9093 0.0 0.0 -2.95465 5.117604 0.0 0.0 0.0 14.4747" pbc="T T T"
Si    0.00000000    0.00000000    1.80900000
Si    0.00000000    0.00000000    12.66500000
Si    2.95500000    1.70600000    6.63400000
Si    2.95500000    1.70600000    3.01600000
Si    0.00000000    3.41200000    11.45900000
Si    -1.47700000    2.55900000    7.23700000
Si    2.95500000    0.00000000    0.00000000
Si    1.47700000    4.26500000    4.82500000
8
Lattice="5.9093 0.0 0.0 -2.95465 5.117604 0.0 0.0 0.0 14.4747" pbc="T T T"
Si    0.00000000    0.00000000    1.80900000
Si    0.00000000    0.00000000    12.66500000
Si    2.95500000    1.70600000    6.63400000
Si    2.95500000    1.70600000    3.01600000
Si    0.00000000    3.41200000    11.45900000
Si    0.00000000    3.41200000    7.84000000
Si    2.95500000    0.00000000    0.00000000
Si    1.47700000    4.26500000    4.82500000
